$ MSC.Nastran input file created on April     22, 2021 at 04:15:52 by
$ Patran 2020  (Student Edition)
$ Direct Text Input for Nastran System Cell Section
$ Direct Text Input for File Management Section
$ Direct Text Input for Executive Control
$ Normal Modes Analysis, Database
SOL 103
CEND
$ Direct Text Input for Global Case Control Data
TITLE = MSC.Nastran job created on 22-Apr-21 at 04:13:57
ECHO = NONE
$ Using Nastran default values for RESVEC
SUBCASE 1
   SUBTITLE=LoadCase
   METHOD = 1
   SPC = 2
   VECTOR(PLOT,SORT1,REAL)=ALL
$ Direct Text Input for this Subcase
BEGIN BULK
$ Direct Text Input for Bulk Data
PARAM    POST    0
PARAM   PRTMAXIM YES
EIGRL    1                       10      0                       MASS
$ Elements and Element Properties for region : 2D_Al7075_Bandeja_2mm
PSHELL   1       1       .003    1               1
$ Pset: "2D_Al7075_Bandeja_2mm" will be imported as: "pshell.1"
CQUAD4   1000    1       1000    1001    1004    1003
CQUAD4   1001    1       1001    1002    1005    1004
CQUAD4   1002    1       1003    1004    1007    1006
CQUAD4   1003    1       1004    1005    1008    1007
CQUAD4   1004    1       1009    1010    1013    1012
CQUAD4   1005    1       1010    1011    1014    1013
CQUAD4   1006    1       1012    1013    1016    1015
CQUAD4   1007    1       1013    1014    1000    1016
CQUAD4   1008    1       1017    1018    1021    1020
CQUAD4   1009    1       1018    1019    1022    1021
CQUAD4   1010    1       1020    1021    1024    1023
CQUAD4   1011    1       1021    1022    1009    1024
CQUAD4   1012    1       1025    1026    1029    1028
CQUAD4   1013    1       1026    1027    1030    1029
CQUAD4   1014    1       1028    1029    1032    1031
CQUAD4   1015    1       1029    1030    1017    1032
CQUAD4   1016    1       1033    1034    1037    1036
CQUAD4   1017    1       1034    1035    1038    1037
CQUAD4   1018    1       1036    1037    1040    1039
CQUAD4   1019    1       1037    1038    1025    1040
$ ... 220 like lines cut
CTRIA3   1240    1       1006    1007    1283
CTRIA3   1241    1       1282    1283    1007
CTRIA3   1242    1       1007    1008    1282
CTRIA3   1243    1       1283    1282    1281
CTRIA3   1244    1       1015    1016    1284
CTRIA3   1245    1       1003    1284    1016
CTRIA3   1246    1       1016    1000    1003
CTRIA3   1247    1       1284    1003    1006
CTRIA3   1248    1       1023    1024    1285
CTRIA3   1249    1       1012    1285    1024
CTRIA3   1250    1       1024    1009    1012
CTRIA3   1251    1       1285    1012    1015
CTRIA3   1252    1       1031    1032    1286
CTRIA3   1253    1       1020    1286    1032
CTRIA3   1254    1       1032    1017    1020
CTRIA3   1255    1       1286    1020    1023
CTRIA3   1256    1       1039    1040    1287
CTRIA3   1257    1       1028    1287    1040
CTRIA3   1258    1       1040    1025    1028
CTRIA3   1259    1       1287    1028    1031
$ ... 76 like lines cut
$ Elements and Element Properties for region : 1D_Al7075_Rig_in
PBARL    2       1               BAR
         .013    .017
 $ Pset: "1D_Al7075_Rig_in" will be imported as: "pbarl.2"
 $ Pset: "1D_Al7075_Rig_in" will be imported as: "pbarl.2"
 CBAR     1336    2       1006    1007    0.      0.      1.
                          0.      0.      -.01    0.      0.      -.01
 CBAR     1337    2       1007    1008    0.      0.      1.
                          0.      0.      -.01    0.      0.      -.01
 CBAR     1338    2       1008    1282    0.      0.      1.
                          0.      0.      -.01    0.      0.      -.01
 CBAR     1339    2       1282    1281    0.      0.      1.
                          0.      0.      -.01    0.      0.      -.01
 CBAR     1340    2       1015    1016    0.      0.      1.
                          0.      0.      -.01    0.      0.      -.01
 CBAR     1341    2       1016    1000    0.      0.      1.
                          0.      0.      -.01    0.      0.      -.01
 CBAR     1342    2       1000    1003    0.      0.      1.
                          0.      0.      -.01    0.      0.      -.01
 CBAR     1343    2       1003    1006    0.      0.      1.
                          0.      0.      -.01    0.      0.      -.01
 CBAR     1344    2       1023    1024    0.      0.      1.
                          0.      0.      -.01    0.      0.      -.01
 CBAR     1345    2       1024    1009    0.      0.      1.
                          0.      0.      -.01    0.      0.      -.01
 CBAR     1346    2       1009    1012    0.      0.      1.
                          0.      0.      -.01    0.      0.      -.01
 CBAR     1347    2       1012    1015    0.      0.      1.
                          0.      0.      -.01    0.      0.      -.01
 CBAR     1348    2       1031    1032    0.      0.      1.
                          0.      0.      -.01    0.      0.      -.01
 CBAR     1349    2       1032    1017    0.      0.      1.
                          0.      0.      -.01    0.      0.      -.01
 CBAR     1350    2       1017    1020    0.      0.      1.
                          0.      0.      -.01    0.      0.      -.01
 CBAR     1351    2       1020    1023    0.      0.      1.
                          0.      0.      -.01    0.      0.      -.01
 CBAR     1352    2       1039    1040    0.      0.      1.
                          0.      0.      -.01    0.      0.      -.01
 CBAR     1353    2       1040    1025    0.      0.      1.
                          0.      0.      -.01    0.      0.      -.01
 CBAR     1354    2       1025    1028    0.      0.      1.
                          0.      0.      -.01    0.      0.      -.01
 CBAR     1355    2       1028    1031    0.      0.      1.
                          0.      0.      -.01    0.      0.      -.01
$ ... 536 like lines cut
 $ Elements and Element Properties for region : 1D_Al7075_Rig_out
 PBARL    3       1               BAR
          .015    .017
 $ Pset: "1D_Al7075_Rig_out" will be imported as: "pbarl.3"
 CBAR     1624    3       1290    1291    0.      0.      1.
                          0.      0.      -.01    0.      0.      -.01
 CBAR     1625    3       1291    1041    0.      0.      1.
                          0.      0.      -.01    0.      0.      -.01
 CBAR     1626    3       1041    1292    0.      0.      1.
                          0.      0.      -.01    0.      0.      -.01
 CBAR     1627    3       1292    1047    0.      0.      1.
                          0.      0.      -.01    0.      0.      -.01
 CBAR     1628    3       1047    1293    0.      0.      1.
                          0.      0.      -.01    0.      0.      -.01
 CBAR     1629    3       1293    1055    0.      0.      1.
                          0.      0.      -.01    0.      0.      -.01
 CBAR     1630    3       1055    1294    0.      0.      1.
                          0.      0.      -.01    0.      0.      -.01
 CBAR     1631    3       1294    1063    0.      0.      1.
                          0.      0.      -.01    0.      0.      -.01
 CBAR     1632    3       1063    1295    0.      0.      1.
                          0.      0.      -.01    0.      0.      -.01
 CBAR     1633    3       1295    1071    0.      0.      1.
                          0.      0.      -.01    0.      0.      -.01
 CBAR     1634    3       1071    1296    0.      0.      1.
                          0.      0.      -.01    0.      0.      -.01
 CBAR     1635    3       1296    1298    0.      0.      1.
                          0.      0.      -.01    0.      0.      -.01
 CBAR     1636    3       1298    1299    0.      0.      1.
                          0.      0.      -.01    0.      0.      -.01
 CBAR     1637    3       1299    1080    0.      0.      1.
                          0.      0.      -.01    0.      0.      -.01
 CBAR     1638    3       1080    1300    0.      0.      1.
                          0.      0.      -.01    0.      0.      -.01
 CBAR     1639    3       1300    1092    0.      0.      1.
                          0.      0.      -.01    0.      0.      -.01
 CBAR     1640    3       1092    1301    0.      0.      1.
                          0.      0.      -.01    0.      0.      -.01
 CBAR     1641    3       1301    1100    0.      0.      1.
                          0.      0.      -.01    0.      0.      -.01
 CBAR     1642    3       1100    1302    0.      0.      1.
                          0.      0.      -.01    0.      0.      -.01
 CBAR     1643    3       1302    1108    0.      0.      1.
                          0.      0.      -.01    0.      0.      -.01
$ ... 56 like lines cut
$ Elements and Element Properties for region : 0D_mass_11kg
CONM2    2000    2000            11.
$ Elements and Element Properties for region : 0D_mass_39.325kg
CONM2*   2500            2500                            39.325001
*
$ Elements and Element Properties for region : 1D_CBUSH_IF
PBUSH    4       K       1.+9    1.+9    1.+9    100.    1.+7    1.+7
$ Pset: "1D_CBUSH_IF" will be imported as: "pbush.4"
CBUSH    1       4       1       1019    0.      1.      0.
CBUSH    2       4       2       1062    0.      1.      0.
CBUSH    3       4       3       1093    0.      1.      0.
CBUSH    4       4       4       1133    0.      1.      0.
CBUSH    5       4       5       1153    0.      1.      0.
CBUSH    6       4       6       1165    0.      1.      0.
CBUSH    7       4       7       1181    0.      1.      0.
CBUSH    8       4       8       1192    0.      1.      0.
$ Referenced Material Records
$ Material Record : Al7075
$ Description of Material : Date: 22-Apr-21           Time: 02:52:15
MAT1*    1               7.0999998+10                    .33
*        2800.           2.2-5           20.
$ Multipoint Constraints of the Entire Model
$ ID conflict : the PATRAN MPC ID was 1
RBE2*    2502            2000            123             1209
*        1217            1229            1238           2.200000017183-5
RBE2     2501    2500    123     1006    1015    1023    1031    1039
         1041    1047    1055    1063    1071    1080    1092    1100
         1108    1116    1121    1129    1137    1145    1151    1281
         1283    1284    1285    1286    1287    1288    1290    1291
         1292    1293    1294    1295    1296    1298    1299    1300
         1301    1302    1303    1304    1306    1307    1308    1309
*        1310            1311            1312           2.200000017183-5
*
$ Nodes of the Entire Model
GRID*    1                              .225000008940697.075000002980232
*        -.02
GRID*    2                               .375           .225000008940697
*        -.02
GRID*    3                              .225000008940697 .375
*        -.02
GRID*    4                              .075000002980232.225000008940697
*        -.02
GRID*    5                              .112500004470348.112500004470348
*        -.02
GRID*    6                              .337500005960464.112500004470348
*        -.02
GRID*    7                              .337500005960464.337500005960464
*        -.02
GRID*    8                              .112500004470348.337500005960464
*        -.02
GRID*    1000                           .112500004470348.037500001490116
*        0.
GRID*    1001                            .09375         .056250002235174
*        0.
GRID*    1002                           .075000002980232.075000002980232
*        0.
GRID*    1003                            .09375         .018750000745058
*        0.
GRID*    1004                           .075000002980232.037500001490116
*        0.
GRID*    1005                           .056250002235174.056250002235174
*        0.
GRID*    1006                           .075000002980232 0.
*        0.
GRID*    1007                           .056250002235174.018750000745058
*        0.
GRID*    1008                           .037500001490116.037500001490116
*        0.
GRID*    1009                            .1875          .037500001490116
*        0.
GRID*    1010                           .168750002980232.056250002235174
*        0.
GRID*    1011                           .150000005960464.075000002980232
*        0.
$ ... 54 like lines cut
GRID     1039            .375    0.      0.
GRID*    1040                           .356249988079071.018750000745058
*        0.
GRID*    1041                           .449999988079071.075000002980232
*        0.
GRID*    1042                           .431249976158142 .09375
*        0.
GRID*    1043                           .412499994039536.112500004470348
*        0.
GRID*    1044                           .431249976158142.056250002235174
*        0.
GRID*    1045                           .412499994039536.075000002980232
*        0.
GRID*    1046                           .393750011920929 .09375
*        0.
GRID*    1047                           .449999988079071.150000005960464
*        0.
GRID*    1048                           .431249976158142.168750002980232
*        0.
GRID*    1049                           .412499994039536 .1875
*        0.
GRID*    1050                           .431249976158142.131250008940697
*        0.
GRID*    1051                           .412499994039536.150000005960464
*        0.
GRID*    1052                           .393750011920929.168750002980232
*        0.
GRID*    1053                           .393750011920929.131250008940697
*        0.
GRID*    1054                            .375           .150000005960464
*        0.
GRID*    1055                           .449999988079071.225000008940697
*        0.
GRID*    1056                           .431249976158142.243750005960464
*        0.
GRID*    1057                           .412499994039536.262500017881393
*        0.
GRID*    1058                           .431249976158142.206250011920929
*        0.
GRID*    1059                           .412499994039536.225000008940697
*        0.
$ ... 36 like lines cut
GRID     1078            .375    .375    0.
GRID*    1079                           .393750011920929.431249976158142
*        0.
GRID*    1080                            .375           .449999988079071
*        0.
GRID*    1081                            .375           .412499994039536
*        0.
GRID*    1082                           .356249988079071.431249976158142
*        0.
GRID*    1083                           .356249988079071.393750011920929
*        0.
GRID*    1084                           .337500005960464.412499994039536
*        0.
GRID*    1085                           .300000011920929 .375
*        0.
GRID*    1086                           .318750023841858.393750011920929
*        0.
GRID*    1087                            .28125         .393750011920929
*        0.
GRID*    1088                           .300000011920929.412499994039536
*        0.
GRID*    1089                           .318750023841858.431249976158142
*        0.
GRID*    1090                           .262500017881393.412499994039536
*        0.
GRID*    1091                            .28125         .431249976158142
*        0.
GRID*    1092                           .300000011920929.449999988079071
*        0.
GRID*    1093                           .225000008940697 .375
*        0.
GRID*    1094                           .243750005960464.393750011920929
*        0.
GRID*    1095                           .206250011920929.393750011920929
*        0.
GRID*    1096                           .225000008940697.412499994039536
*        0.
GRID*    1097                           .243750005960464.431249976158142
*        0.
GRID*    1098                            .1875          .412499994039536
*        0.
$ ... 44 like lines cut
GRID     1121            0.      .375    0.
GRID*    1122                           .018750000745058.393750011920929
*        0.
GRID*    1123                           .037500001490116.262500017881393
*        0.
GRID*    1124                           .056250002235174 .28125
*        0.
GRID*    1125                           .075000002980232.300000011920929
*        0.
GRID*    1126                           .018750000745058 .28125
*        0.
GRID*    1127                           .037500001490116.300000011920929
*        0.
GRID*    1128                           .056250002235174.318750023841858
*        0.
GRID*    1129                            0.             .300000011920929
*        0.
GRID*    1130                           .018750000745058.318750023841858
*        0.
GRID*    1131                           .037500001490116 .1875
*        0.
GRID*    1132                           .056250002235174.206250011920929
*        0.
GRID*    1133                           .075000002980232.225000008940697
*        0.
GRID*    1134                           .018750000745058.206250011920929
*        0.
GRID*    1135                           .037500001490116.225000008940697
*        0.
GRID*    1136                           .056250002235174.243750005960464
*        0.
GRID*    1137                            0.             .225000008940697
*        0.
GRID*    1138                           .018750000745058.243750005960464
*        0.
GRID*    1139                           .037500001490116.112500004470348
*        0.
GRID*    1140                           .056250002235174.131250008940697
*        0.
GRID*    1141                           .075000002980232.150000005960464
*        0.
$ ... 26 like lines cut
GRID     1155            .09375  .09375  0.
GRID*    1156                           .206250011920929 .09375
*        0.
GRID*    1157                            .1875          .112500004470348
*        0.
GRID*    1158                            .1875          .075000002980232
*        0.
GRID*    1159                           .168750002980232 .09375
*        0.
GRID     1160            .28125  .09375  0.
GRID*    1161                           .262500017881393.112500004470348
*        0.
GRID*    1162                           .262500017881393.075000002980232
*        0.
GRID*    1163                           .243750005960464 .09375
*        0.
GRID*    1164                           .356249988079071 .09375
*        0.
GRID*    1165                           .337500005960464.112500004470348
*        0.
GRID*    1166                           .337500005960464.075000002980232
*        0.
GRID*    1167                           .318750023841858 .09375
*        0.
GRID*    1168                            .375           .112500004470348
*        0.
GRID*    1169                           .356249988079071.131250008940697
*        0.
GRID     1170            .375    .1875   0.
GRID*    1171                           .356249988079071.206250011920929
*        0.
GRID*    1172                           .356249988079071.168750002980232
*        0.
GRID*    1173                           .337500005960464 .1875
*        0.
GRID*    1174                            .375           .262499988079071
*        0.
GRID*    1175                           .356249988079071 .28125
*        0.
GRID*    1176                           .356249988079071.243750005960464
*        0.
GRID*    1177                           .337500005960464.262500017881393
*        0.
GRID*    1178                            .375           .337500005960464
*        0.
GRID*    1179                           .356249988079071.356249988079071
*        0.
GRID*    1180                           .356249988079071.318750023841858
*        0.
GRID*    1181                           .337500005960464.337500005960464
*        0.
GRID*    1182                           .337500005960464 .375
*        0.
GRID*    1183                           .318750023841858.356249988079071
*        0.
GRID*    1184                           .262500017881393.337500005960464
*        0.
GRID*    1185                            .28125         .356249988079071
*        0.
GRID*    1186                           .243750005960464.356249988079071
*        0.
GRID*    1187                           .262500017881393 .375
*        0.
GRID*    1188                            .1875          .337500005960464
*        0.
GRID*    1189                           .206250011920929.356249988079071
*        0.
GRID*    1190                           .168750002980232.356249988079071
*        0.
GRID     1191            .1875   .375    0.
GRID*    1192                           .112500004470348.337500005960464
*        0.
GRID*    1193                           .131250008940697.356249988079071
*        0.
GRID*    1194                            .09375         .356249988079071
*        0.
GRID*    1195                           .112500004470348 .375
*        0.
GRID*    1196                            .09375         .318750023841858
*        0.
GRID*    1197                           .075000002980232.337500005960464
*        0.
GRID*    1198                            .09375         .243750005960464
*        0.
GRID*    1199                           .112500004470348.262500017881393
*        0.
GRID*    1200                           .075000002980232.262500017881393
*        0.
GRID     1201            .09375  .28125  0.
GRID*    1202                            .09375         .168750002980232
*        0.
GRID*    1203                           .112500004470348 .1875
*        0.
GRID*    1204                           .075000002980232 .1875
*        0.
GRID*    1205                            .09375         .206250011920929
*        0.
GRID*    1206                            .09375         .131250008940697
*        0.
GRID*    1207                           .075000002980232.112500004470348
*        0.
GRID*    1208                           .168750002980232.131250008940697
*        0.
GRID*    1209                           .150000005960464.150000005960464
*        0.
GRID*    1210                           .150000005960464.112500004470348
*        0.
GRID*    1211                           .131250008940697.131250008940697
*        0.
GRID*    1212                           .243750005960464.131250008940697
*        0.
GRID*    1213                           .225000008940697.150000005960464
*        0.
GRID*    1214                           .225000008940697.112500004470348
*        0.
GRID*    1215                           .206250011920929.131250008940697
*        0.
GRID*    1216                           .318750023841858.131250008940697
*        0.
GRID*    1217                           .300000011920929.150000005960464
*        0.
GRID*    1218                           .300000011920929.112500004470348
*        0.
GRID*    1219                            .28125         .131250008940697
*        0.
GRID*    1220                           .337500005960464.150000005960464
*        0.
GRID*    1221                           .318750023841858.168750002980232
*        0.
$ ... 54 like lines cut
GRID     1249            .1875   .1875   0.
GRID*    1250                            .1875          .150000005960464
*        0.
GRID*    1251                           .168750002980232.168750002980232
*        0.
GRID*    1252                            .28125         .168750002980232
*        0.
GRID*    1253                           .262500017881393 .1875
*        0.
GRID*    1254                           .262500017881393.150000005960464
*        0.
GRID*    1255                           .243750005960464.168750002980232
*        0.
GRID*    1256                           .300000011920929 .1875
*        0.
GRID*    1257                            .28125         .206250011920929
*        0.
GRID*    1258                           .300000011920929.262500017881393
*        0.
GRID     1259            .28125  .28125  0.
GRID*    1260                            .28125         .243750005960464
*        0.
GRID*    1261                           .262500017881393.262500017881393
*        0.
GRID*    1262                           .262499988079071.300000011920929
*        0.
GRID*    1263                           .243750005960464 .28125
*        0.
GRID*    1264                           .206250011920929 .28125
*        0.
GRID*    1265                            .1875          .300000011920929
*        0.
GRID*    1266                            .1875          .262500017881393
*        0.
GRID*    1267                           .168750002980232 .28125
*        0.
GRID*    1268                           .168750002980232.243750005960464
*        0.
GRID*    1269                           .150000005960464.262500017881393
*        0.
GRID*    1270                           .150000005960464 .1875
*        0.
GRID*    1271                           .168750002980232.206250011920929
*        0.
GRID*    1272                           .243750005960464.206250011920929
*        0.
GRID*    1273                           .225000008940697.225000008940697
*        0.
GRID*    1274                           .225000008940697 .1875
*        0.
GRID*    1275                           .206250011920929.206250011920929
*        0.
GRID*    1276                           .262500017881393.225000008940697
*        0.
GRID*    1277                           .243750005960464.243750005960464
*        0.
GRID*    1278                           .206250011920929.243750005960464
*        0.
GRID*    1279                           .225000008940697.262500017881393
*        0.
GRID*    1280                            .1875          .225000008940697
*        0.
GRID     1281            0.      0.      0.
GRID*    1282                           .018750000745058.018750000745058
*        0.
GRID*    1283                           .037500001490116 0.
*        0.
GRID*    1284                           .112500004470348 0.
*        0.
GRID     1285            .1875   0.      0.
GRID*    1286                           .262500017881393 0.
*        0.
GRID*    1287                           .337500005960464 0.
*        0.
GRID*    1288                           .412499994039536 0.
*        0.
GRID*    1289                           .431249976158142.018750000745058
*        0.
GRID*    1290                           .449999988079071 0.
*        0.
GRID*    1291                           .449999988079071.037500001490116
*        0.
GRID*    1292                           .449999988079071.112500004470348
*        0.
GRID*    1293                           .449999988079071 .1875
*        0.
GRID*    1294                           .449999988079071.262500017881393
*        0.
GRID*    1295                           .449999988079071.337500005960464
*        0.
GRID*    1296                           .449999988079071.412499994039536
*        0.
GRID*    1297                           .431249976158142.431249976158142
*        0.
GRID*    1298                           .449999988079071.449999988079071
*        0.
GRID*    1299                           .412499994039536.449999988079071
*        0.
GRID*    1300                           .337500005960464.449999988079071
*        0.
GRID*    1301                           .262500017881393.449999988079071
*        0.
GRID*    1302                            .1875          .449999988079071
*        0.
GRID*    1303                           .112500004470348.449999988079071
*        0.
GRID*    1304                           .037500001490116.449999988079071
*        0.
GRID*    1305                           .018750000745058.431249976158142
*        0.
$ ... 8 like lines cut
GRID     1310            0.      .1875   0.
GRID*    1311                            0.             .112500004470348
*        0.
GRID*    1312                            0.             .037500001490116
*        0.
GRID*    2000                           .224999994039536.224999994039536
*       .079999998211861
GRID*    2500                           .224999994039536.224999994039536
*       .379999995231628
$ Loads for Load Case : LoadCase
SPCADD   2       1
$ Displacement Constraints of Load Set : SPC_123456
SPC1     1       123456  1       THRU    8
$ Referenced Coordinate Frames
ENDDATA 750f55a1
