$ MSC.Nastran input file created on April     22, 2021 at 20:16:08 by
$ Patran 2020  (Student Edition)
$ Direct Text Input for Nastran System Cell Section
$ Direct Text Input for File Management Section
$ Direct Text Input for Executive Control
$ Normal Modes Analysis, Database
SOL 103
CEND
$ Direct Text Input for Global Case Control Data
TITLE = MSC.Nastran job created on 22-Apr-21 at 18:47:55
ECHO = NONE
$ Using Nastran default values for RESVEC
SUBCASE 1
   SUBTITLE=LoadCase
   METHOD = 1
   SPC = 2
   WEIGHTCHECK(PRINT,SET=ALL) = YES
   VECTOR(PLOT,SORT1,REAL)=ALL
$ Direct Text Input for this Subcase
BEGIN BULK
$ Direct Text Input for Bulk Data
PARAM    POST    0
PARAM   PRTMAXIM YES
EIGRL    1                       10      0                       MASS
$ Elements and Element Properties for region : 2D_Al7075_Bandeja_int_3mm
PSHELL   1       1       .003    1               1
$ Pset: "2D_Al7075_Bandeja_int_3mm" will be imported as: "pshell.1"
CTRIA3   3000    1       1000    1001    1400
CTRIA3   3001    1       1450    1400    1001
CTRIA3   3002    1       1001    1002    1450
CTRIA3   3003    1       1449    1450    1002
CTRIA3   3004    1       1002    1003    1449
CTRIA3   3005    1       1448    1449    1003
CTRIA3   3006    1       1003    1004    1448
CTRIA3   3007    1       1447    1448    1004
CTRIA3   3008    1       1004    1005    1447
CTRIA3   3009    1       1007    1447    1005
CTRIA3   3010    1       1005    1006    1007
CTRIA3   3011    1       1400    1450    1399
CTRIA3   3012    1       1446    1399    1450
CTRIA3   3013    1       1450    1449    1446
CTRIA3   3014    1       1445    1446    1449
CTRIA3   3015    1       1449    1448    1445
CTRIA3   3016    1       1444    1445    1448
CTRIA3   3017    1       1448    1447    1444
CTRIA3   3018    1       1008    1444    1447
CTRIA3   3019    1       1447    1007    1008
$ ... 556 like lines cut
CQUAD4   4000    1       1276    1331    1601    1336
CQUAD4   4001    1       1331    1332    1602    1601
CQUAD4   4002    1       1332    1333    1603    1602
CQUAD4   4003    1       1333    1334    1604    1603
CQUAD4   4004    1       1334    1335    1605    1604
CQUAD4   4005    1       1335    1150    1151    1605
CQUAD4   4006    1       1336    1601    1606    1337
CQUAD4   4007    1       1601    1602    1607    1606
CQUAD4   4008    1       1602    1603    1608    1607
CQUAD4   4009    1       1603    1604    1609    1608
CQUAD4   4010    1       1604    1605    1610    1609
CQUAD4   4011    1       1605    1151    1152    1610
CQUAD4   4012    1       1337    1606    1611    1338
CQUAD4   4013    1       1606    1607    1612    1611
CQUAD4   4014    1       1607    1608    1613    1612
CQUAD4   4015    1       1608    1609    1614    1613
CQUAD4   4016    1       1609    1610    1615    1614
CQUAD4   4017    1       1610    1152    1153    1615
CQUAD4   4018    1       1338    1611    1616    1339
CQUAD4   4019    1       1611    1612    1617    1616
$ ... 844 like lines cut
$ Elements and Element Properties for region : 1D_Al7075_Rig_in
PBARL    2       1               BAR
         .013    .019
$ Pset: "1D_Al7075_Rig_in" will be imported as: "pbarl.2"
CBAR     1000    2       1000    1001    0.      0.      1.
                         0.      0.      -.011   0.      0.      -.011
CBAR     1001    2       1001    1002    0.      0.      1.
                         0.      0.      -.011   0.      0.      -.011
CBAR     1002    2       1002    1003    0.      0.      1.
                         0.      0.      -.011   0.      0.      -.011
CBAR     1003    2       1003    1004    0.      0.      1.
                         0.      0.      -.011   0.      0.      -.011
CBAR     1004    2       1004    1005    0.      0.      1.
                         0.      0.      -.011   0.      0.      -.011
CBAR     1005    2       1005    1006    0.      0.      1.
                         0.      0.      -.011   0.      0.      -.011
CBAR     1006    2       1006    1007    0.      0.      1.
                         0.      0.      -.011   0.      0.      -.011
CBAR     1007    2       1007    1008    0.      0.      1.
                         0.      0.      -.011   0.      0.      -.011
CBAR     1008    2       1008    1009    0.      0.      1.
                         0.      0.      -.011   0.      0.      -.011
CBAR     1009    2       1009    1010    0.      0.      1.
                         0.      0.      -.011   0.      0.      -.011
CBAR     1010    2       1010    1011    0.      0.      1.
                         0.      0.      -.011   0.      0.      -.011
CBAR     1011    2       1011    1012    0.      0.      1.
                         0.      0.      -.011   0.      0.      -.011
CBAR     1012    2       1000    1013    0.      0.      1.
                         0.      0.      -.011   0.      0.      -.011
CBAR     1013    2       1013    1014    0.      0.      1.
                         0.      0.      -.011   0.      0.      -.011
CBAR     1014    2       1014    1015    0.      0.      1.
                         0.      0.      -.011   0.      0.      -.011
CBAR     1015    2       1015    1016    0.      0.      1.
                         0.      0.      -.011   0.      0.      -.011
CBAR     1016    2       1016    1017    0.      0.      1.
                         0.      0.      -.011   0.      0.      -.011
CBAR     1017    2       1017    1018    0.      0.      1.
                         0.      0.      -.011   0.      0.      -.011
CBAR     1018    2       1018    1019    0.      0.      1.
                         0.      0.      -.011   0.      0.      -.011
CBAR     1019    2       1019    1020    0.      0.      1.
                         0.      0.      -.011   0.      0.      -.011
$ ... 728 like lines cut
$ Elements and Element Properties for region : 1D_Al7075_Rig_out
PBARL    3       1               BAR
         .015    .019
$ Pset: "1D_Al7075_Rig_out" will be imported as: "pbarl.3"
CBAR     1384    3       1126    1361    0.      0.      1.
                         0.      0.      -.011   0.      0.      -.011
CBAR     1385    3       1361    1362    0.      0.      1.
                         0.      0.      -.011   0.      0.      -.011
CBAR     1386    3       1362    1363    0.      0.      1.
                         0.      0.      -.011   0.      0.      -.011
CBAR     1387    3       1363    1364    0.      0.      1.
                         0.      0.      -.011   0.      0.      -.011
CBAR     1388    3       1364    1365    0.      0.      1.
                         0.      0.      -.011   0.      0.      -.011
CBAR     1389    3       1365    1138    0.      0.      1.
                         0.      0.      -.011   0.      0.      -.011
CBAR     1390    3       1114    1366    0.      0.      1.
                         0.      0.      -.011   0.      0.      -.011
CBAR     1391    3       1366    1367    0.      0.      1.
                         0.      0.      -.011   0.      0.      -.011
CBAR     1392    3       1367    1368    0.      0.      1.
                         0.      0.      -.011   0.      0.      -.011
CBAR     1393    3       1368    1369    0.      0.      1.
                         0.      0.      -.011   0.      0.      -.011
CBAR     1394    3       1369    1370    0.      0.      1.
                         0.      0.      -.011   0.      0.      -.011
CBAR     1395    3       1370    1126    0.      0.      1.
                         0.      0.      -.011   0.      0.      -.011
CBAR     1396    3       1107    1371    0.      0.      1.
                         0.      0.      -.011   0.      0.      -.011
CBAR     1397    3       1371    1372    0.      0.      1.
                         0.      0.      -.011   0.      0.      -.011
CBAR     1398    3       1372    1373    0.      0.      1.
                         0.      0.      -.011   0.      0.      -.011
CBAR     1399    3       1373    1374    0.      0.      1.
                         0.      0.      -.011   0.      0.      -.011
CBAR     1400    3       1374    1375    0.      0.      1.
                         0.      0.      -.011   0.      0.      -.011
CBAR     1401    3       1375    1114    0.      0.      1.
                         0.      0.      -.011   0.      0.      -.011
CBAR     1402    3       1101    1376    0.      0.      1.
                         0.      0.      -.011   0.      0.      -.011
CBAR     1403    3       1376    1377    0.      0.      1.
                         0.      0.      -.011   0.      0.      -.011
$ ... 152 like lines cut
$ Elements and Element Properties for region : 0D_Mass_equip_11kg
CONM2    5000    5000            11.
$ Elements and Element Properties for region : 0D_Mass_equip_39.325kg
CONM2*   6000            6000                            39.325001
*
$ Elements and Element Properties for region : 1D_CBUSH_IF
PBUSH    4       K       1.+9    1.+9    1.+9    100.    1.+7    1.+7
$ Pset: "1D_CBUSH_IF" will be imported as: "pbush.4"
CBUSH    1       4       1       1018    0.      1.      0.
CBUSH    2       4       2       1042    0.      1.      0.
CBUSH    3       4       3       1048    0.      1.      0.
CBUSH    4       4       4       1078    0.      1.      0.
CBUSH    5       4       5       1108    0.      1.      0.
CBUSH    6       4       6       1120    0.      1.      0.
CBUSH    7       4       7       1150    0.      1.      0.
CBUSH    8       4       8       1162    0.      1.      0.
$ Referenced Material Records
$ Material Record : Al7075
$ Description of Material : Date: 22-Apr-21           Time: 13:00:31
MAT1*    1               7.0999998+10                    .33
*        2800.           2.2-5           20.
$ Multipoint Constraints of the Entire Model
RBE2*    5001            5000            123             1207
*        1234            1277            1294           2.200000017183-5
RBE2     6001    6000    123     1000    1012    1030    1036    1054
         1066    1077    1084    1101    1107    1114    1126    1138
         1144    1156    1168    1361    1362    1363    1364    1365
         1366    1367    1368    1369    1370    1371    1372    1373
         1374    1375    1376    1377    1378    1379    1380    1381
         1382    1383    1384    1385    1386    1387    1388    1389
         1390    1391    1392    1393    1394    1395    1396    1397
         1398    1399    1400    1401    1402    1403    1404    1405
         1406    1407    1408    1409    1410    1411    1412    1413
         1414    1415    1416    1417    1418    1419    1420    1421
         1422    1423    1424    1425    1426    1427    1428    1429
         1430    1431    1432    1433    1434    1435    1436    1437
*        1438            1439            1440           2.200000017183-5
*
$ Nodes of the Entire Model
GRID*    1                              .168749988079071.056249998509884
*        -.02
GRID*    2                              .056249994784594.168749988079071
*        -.02
GRID*    3                              .056249994784594.281249970197678
*        -.02
GRID*    4                               .28125         .056249998509884
*        -.02
GRID*    5                              .393749892711639.168750062584877
*        -.02
GRID*    6                              .393749892711639.281250059604645
*        -.02
GRID*    7                              .168749898672104.393749892711639
*        -.02
GRID*    8                               .28124988079071.393749892711639
*        -.02
GRID*    1000                           .112499997019768 0.
*        0.
GRID*    1001                           .103124998509884.009374999441206
*        0.
GRID*    1002                            .09375         .018749998882413
*        0.
GRID*    1003                           .084374994039536.028124999254942
*        0.
GRID*    1004                           .074999995529652.037499997764826
*        0.
GRID*    1005                           .065624997019768 .04687499627471
*        0.
GRID*    1006                           .056249998509884.056249998509884
*        0.
GRID*    1007                            .04687499627471 .04687499627471
*        0.
GRID*    1008                           .037499997764826.037499997764826
*        0.
GRID*    1009                           .028124999254942.028124999254942
*        0.
GRID*    1010                           .018749997019768.018749997019768
*        0.
GRID*    1011                           .009375000372529.009375000372529
*        0.
GRID     1012            0.      0.      0.
GRID*    1013                           .121874995529652.009374999441206
*        0.
GRID*    1014                           .131249994039536.018749998882413
*        0.
GRID*    1015                            .140625        .028124999254942
*        0.
GRID*    1016                           .149999991059303.037499997764826
*        0.
GRID*    1017                           .159374982118607.046874992549419
*        0.
GRID*    1018                           .168749988079071.056249998509884
*        0.
GRID*    1019                           .159374982118607.065624997019768
*        0.
GRID*    1020                           .149999991059303.074999995529652
*        0.
GRID*    1021                            .140625        .084374994039536
*        0.
GRID*    1022                           .131249994039536 .09375
*        0.
GRID*    1023                           .121875002980232.103124991059303
*        0.
GRID*    1024                           .112499997019768.112499997019768
*        0.
GRID*    1025                           .103124998509884.103124998509884
*        0.
GRID     1026            .09375  .09375  0.
GRID*    1027                           .084374994039536.084374994039536
*        0.
GRID*    1028                           .074999995529652.074999995529652
*        0.
GRID*    1029                           .065624997019768.065624997019768
*        0.
GRID*    1030                            0.             .112499997019768
*        0.
GRID*    1031                           .009374999441206.103124998509884
*        0.
GRID*    1032                           .018749998882413.093749992549419
*        0.
GRID*    1033                           .028124997392297.084374994039536
*        0.
GRID*    1034                           .037499997764826.074999995529652
*        0.
GRID*    1035                           .046874992549419.065624997019768
*        0.
GRID*    1036                            0.             .224999994039536
*        0.
GRID*    1037                           .009374999441206.215624988079071
*        0.
GRID*    1038                           .018749998882413.206249997019768
*        0.
GRID*    1039                           .028124997392297.196874991059303
*        0.
GRID*    1040                           .037499997764826.187499985098839
*        0.
GRID*    1041                           .046874992549419.178124994039536
*        0.
GRID*    1042                           .056249994784594.168749988079071
*        0.
GRID*    1043                           .046874992549419.159374997019768
*        0.
GRID*    1044                           .037499994039536.149999991059303
*        0.
GRID*    1045                           .028124993667006 .140625
*        0.
GRID*    1046                           .018749993294477.131249994039536
*        0.
$ ... 494 like lines cut
GRID     1294            .28125  .28125  0.
GRID*    1295                           .271874994039536.290625005960464
*        0.
GRID*    1296                           .262499988079071.299999982118607
*        0.
GRID*    1297                           .253125011920929.309374988079071
*        0.
GRID*    1298                           .243749991059303.318749994039536
*        0.
GRID*    1299                           .234374985098839.328124970197678
*        0.
GRID     1300            .234375 .234375 0.
GRID*    1301                           .243749991059303.243749991059303
*        0.
GRID*    1302                           .253125011920929.253124982118607
*        0.
GRID*    1303                           .262499988079071.262499988079071
*        0.
GRID*    1304                           .271874994039536.271874994039536
*        0.
GRID*    1305                           .215624988079071 .234375
*        0.
GRID*    1306                           .206249997019768.243749991059303
*        0.
GRID*    1307                           .196874991059303.253124982118607
*        0.
GRID*    1308                           .187499985098839.262499988079071
*        0.
GRID*    1309                           .178124994039536.271874994039536
*        0.
GRID*    1310                           .328124970197678 .234375
*        0.
GRID*    1311                           .318749994039536.243749991059303
*        0.
GRID*    1312                           .309374988079071.253124982118607
*        0.
GRID*    1313                           .299999982118607.262499988079071
*        0.
GRID*    1314                           .290625005960464.271874994039536
*        0.
GRID*    1315                           .290625005960464.290625005960464
*        0.
GRID*    1316                           .299999982118607.299999982118607
*        0.
GRID*    1317                           .309374988079071.309374988079071
*        0.
GRID*    1318                           .318749994039536.318749994039536
*        0.
GRID*    1319                           .328124970197678.328124970197678
*        0.
GRID*    1320                           .337499976158142.337499976158142
*        0.
$ ... 134 like lines cut
GRID     1388            .28125  0.      0.
GRID*    1389                           .299999982118607 0.
*        0.
GRID*    1390                           .318749994039536 0.
*        0.
GRID*    1391                           .131249994039536 0.
*        0.
GRID*    1392                           .149999991059303 0.
*        0.
GRID*    1393                           .168749988079071 0.
*        0.
GRID     1394            .1875   0.      0.
GRID*    1395                           .206249997019768 0.
*        0.
GRID*    1396                           .018749998882413 0.
*        0.
GRID*    1397                           .037499997764826 0.
*        0.
GRID*    1398                           .056249998509884 0.
*        0.
GRID*    1399                           .075000002980232 0.
*        0.
GRID*    1400                           .093749992549419 0.
*        0.
GRID*    1401                           -8.1958850817-10 .09375
*        0.
GRID*    1402                            -1.6391771274-9.074999995529652
*        0.
GRID*    1403                            -2.4587656355-9.056249998509884
*        0.
GRID*    1404                            -3.2783544768-9.037499990314245
*        0.
GRID*    1405                            -4.0979424298-9.018750002607703
*        0.
GRID*    1406                           -8.1958850817-10.206249997019768
*        0.
GRID*    1407                            -1.6391771274-9 .1875
*        0.
GRID*    1408                            -2.4587656355-9.168749988079071
*        0.
GRID*    1409                            -3.2783544768-9.149999991059303
*        0.
GRID*    1410                            -4.0979424298-9.131249994039536
*        0.
GRID*    1411                           -8.1958850817-10.318749964237213
*        0.
GRID*    1412                            -1.6391771274-9.299999982118607
*        0.
GRID*    1413                            -2.4587656355-9.281249970197678
*        0.
GRID*    1414                            -3.2783544768-9.262499958276749
*        0.
$ ... 812 like lines cut
GRID     1821            .1875   .28125  0.
GRID*    1822                           .196874976158142.290624976158142
*        0.
GRID*    1823                           .206249997019768.299999982118607
*        0.
GRID*    1824                            .21562497317791.309374958276749
*        0.
GRID*    1825                           .224999994039536.318749994039536
*        0.
GRID*    1826                           .337499976158142.243750020861626
*        0.
GRID*    1827                           .346874952316284.253125011920929
*        0.
GRID*    1828                           .356249958276749.262500017881393
*        0.
GRID*    1829                           .365624934434891.271874994039536
*        0.
GRID*    1830                           .374999970197678.281250029802322
*        0.
GRID*    1831                           .328125029802322.253124982118607
*        0.
GRID*    1832                           .337500005960464.262499958276749
*        0.
GRID*    1833                           .346875011920929.271874964237213
*        0.
GRID*    1834                           .356249988079071.281249940395355
*        0.
GRID*    1835                           .365625023841858.290624976158142
*        0.
GRID*    1836                           .318749994039536.262500017881393
*        0.
GRID*    1837                           .328124970197678.271874964237213
*        0.
GRID*    1838                           .337499976158142 .28125
*        0.
GRID*    1839                           .346874982118607.290624976158142
*        0.
GRID*    1840                           .356249988079071.299999982118607
*        0.
GRID*    1841                           .309374988079071.271875023841858
*        0.
$ ... 328 like lines cut
GRID     2006            .328125 .140625 0.
GRID*    2007                           .337500005960464.149999991059303
*        0.
GRID*    2008                           .346874982118607.159374997019768
*        0.
GRID*    2009                           .356249988079071.168749988079071
*        0.
GRID*    2010                           .365624994039536.178124979138374
*        0.
GRID*    2011                           .318749994039536.150000005960464
*        0.
GRID*    2012                            .328125        .159374997019768
*        0.
GRID*    2013                           .337499976158142.168749988079071
*        0.
GRID*    2014                           .346874982118607.178124979138374
*        0.
GRID*    2015                           .356249988079071 .1875
*        0.
GRID*    2016                           .309374988079071.159375011920929
*        0.
GRID*    2017                           .318749994039536.168750002980232
*        0.
GRID*    2018                            .328125        .178124994039536
*        0.
GRID*    2019                           .337499976158142.187499985098839
*        0.
GRID*    2020                           .346874982118607.196875005960464
*        0.
GRID*    2021                           .300000011920929.168750002980232
*        0.
GRID*    2022                           .309374988079071.178124994039536
*        0.
GRID*    2023                           .318749994039536 .1875
*        0.
GRID*    2024                           .328124970197678.196874976158142
*        0.
GRID*    2025                           .337499976158142.206250011920929
*        0.
GRID*    2026                           .393749982118607 .07499998062849
*        0.
$ ... 352 like lines cut
$ Loads for Load Case : LoadCase
SPCADD   2       1
$ Displacement Constraints of Load Set : SPC_123456
SPC1     1       123456  1       THRU    8
$ Referenced Coordinate Frames
ENDDATA e69df5cf
