$ MSC.Nastran input file created on May       07, 2021 at 02:27:00 by
$ Patran 2020  (Student Edition)
$ Direct Text Input for Nastran System Cell Section
$ Direct Text Input for File Management Section
$ Direct Text Input for Executive Control
$ Normal Modes Analysis, Database
SOL 103
CEND
$ Direct Text Input for Global Case Control Data
TITLE = MSC.Nastran job created on 06-May-21 at 18:06:31
ECHO = NONE
$ Using Nastran default values for RESVEC
SUBCASE 1
   SUBTITLE=LC1.Modes
   METHOD = 1
   SPC = 2
   VECTOR(PLOT,SORT1,REAL)=ALL
$ Direct Text Input for this Subcase
BEGIN BULK
$ Direct Text Input for Bulk Data
PARAM    POST    0
PARAM   PRTMAXIM YES
EIGRL    1                       4       0                       MASS
$ Elements and Element Properties for region : 1D_Al7075_Rig_in
PBARL    1       1               T
         .010216 .035   .0010002.0020442 0.
$ Pset: "1D_Al7075_Rig_in" will be imported as: "pbarl.1"
CBAR     4000    1       1444    1443    0.      0.      1.
                         0.      0.      -.01775 0.      0.      -.01775
CBAR     4001    1       1443    1442    0.      0.      1.
                         0.      0.      -.01775 0.      0.      -.01775
CBAR     4002    1       1442    1000    0.      0.      1.
                         0.      0.      -.01775 0.      0.      -.01775
CBAR     4003    1       1000    1004    0.      0.      1.
                         0.      0.      -.01775 0.      0.      -.01775
CBAR     4004    1       1004    1008    0.      0.      1.
                         0.      0.      -.01775 0.      0.      -.01775
CBAR     4005    1       1008    1012    0.      0.      1.
                         0.      0.      -.01775 0.      0.      -.01775
CBAR     4006    1       1012    1234    0.      0.      1.
                         0.      0.      -.01775 0.      0.      -.01775
CBAR     4007    1       1234    1235    0.      0.      1.
                         0.      0.      -.01775 0.      0.      -.01775
CBAR     4008    1       1235    1236    0.      0.      1.
                         0.      0.      -.01775 0.      0.      -.01775
CBAR     4009    1       1236    1330    0.      0.      1.
                         0.      0.      -.01775 0.      0.      -.01775
CBAR     4010    1       1330    1331    0.      0.      1.
                         0.      0.      -.01775 0.      0.      -.01775
CBAR     4011    1       1331    1332    0.      0.      1.
                         0.      0.      -.01775 0.      0.      -.01775
CBAR     4012    1       1332    1390    0.      0.      1.
                         0.      0.      -.01775 0.      0.      -.01775
CBAR     4013    1       1390    1391    0.      0.      1.
                         0.      0.      -.01775 0.      0.      -.01775
CBAR     4014    1       1391    1392    0.      0.      1.
                         0.      0.      -.01775 0.      0.      -.01775
CBAR     4015    1       1392    1397    0.      0.      1.
                         0.      0.      -.01775 0.      0.      -.01775
CBAR     4016    1       1397    1398    0.      0.      1.
                         0.      0.      -.01775 0.      0.      -.01775
CBAR     4017    1       1398    1354    0.      0.      1.
                         0.      0.      -.01775 0.      0.      -.01775
CBAR     4018    1       1354    1355    0.      0.      1.
                         0.      0.      -.01775 0.      0.      -.01775
CBAR     4019    1       1355    1356    0.      0.      1.
                         0.      0.      -.01775 0.      0.      -.01775
$ ... 560 like lines cut
$ Elements and Element Properties for region : 1D_Al7075_Rig_out
PBARL    2       1               BAR
         .001    .035    0.
$ Pset: "1D_Al7075_Rig_out" will be imported as: "pbarl.2"
CBAR     4500    2       1462    1465    0.      0.      1.
                         0.      0.      -.01775 0.      0.      -.01775
CBAR     4501    2       1465    1464    0.      0.      1.
                         0.      0.      -.01775 0.      0.      -.01775
CBAR     4502    2       1464    1072    0.      0.      1.
                         0.      0.      -.01775 0.      0.      -.01775
CBAR     4503    2       1072    1468    0.      0.      1.
                         0.      0.      -.01775 0.      0.      -.01775
CBAR     4504    2       1468    1467    0.      0.      1.
                         0.      0.      -.01775 0.      0.      -.01775
CBAR     4505    2       1467    1087    0.      0.      1.
                         0.      0.      -.01775 0.      0.      -.01775
CBAR     4506    2       1087    1471    0.      0.      1.
                         0.      0.      -.01775 0.      0.      -.01775
CBAR     4507    2       1471    1470    0.      0.      1.
                         0.      0.      -.01775 0.      0.      -.01775
CBAR     4508    2       1470    1102    0.      0.      1.
                         0.      0.      -.01775 0.      0.      -.01775
CBAR     4509    2       1102    1474    0.      0.      1.
                         0.      0.      -.01775 0.      0.      -.01775
CBAR     4510    2       1474    1473    0.      0.      1.
                         0.      0.      -.01775 0.      0.      -.01775
CBAR     4511    2       1473    1117    0.      0.      1.
                         0.      0.      -.01775 0.      0.      -.01775
CBAR     4512    2       1117    1477    0.      0.      1.
                         0.      0.      -.01775 0.      0.      -.01775
CBAR     4513    2       1477    1476    0.      0.      1.
                         0.      0.      -.01775 0.      0.      -.01775
CBAR     4514    2       1476    1409    0.      0.      1.
                         0.      0.      -.01775 0.      0.      -.01775
CBAR     4515    2       1409    1411    0.      0.      1.
                         0.      0.      -.01775 0.      0.      -.01775
CBAR     4516    2       1411    1414    0.      0.      1.
                         0.      0.      -.01775 0.      0.      -.01775
CBAR     4517    2       1414    1127    0.      0.      1.
                         0.      0.      -.01775 0.      0.      -.01775
CBAR     4518    2       1127    1415    0.      0.      1.
                         0.      0.      -.01775 0.      0.      -.01775
CBAR     4519    2       1415    1417    0.      0.      1.
                         0.      0.      -.01775 0.      0.      -.01775
$ ... 80 like lines cut
$ Elements and Element Properties for region : 1D_CBUSH_IF
PBUSH    3       K       1.+9    1.+9    1.+9    100.    1.+7    1.+7
                 RCV     1.      1.      1.      1.
$ Pset: "1D_CBUSH_IF" will be imported as: "pbush.3"
CBUSH    1       3       1       1012    0.      1.      0.
         .5
CBUSH    2       3       2       1030    0.      1.      0.
         .5
CBUSH    3       3       3       1057    0.      1.      0.
         .5
CBUSH    4       3       4       1084    0.      1.      0.
         .5
CBUSH    5       3       5       1103    0.      1.      0.
         .5
CBUSH    6       3       6       1130    0.      1.      0.
         .5
CBUSH    7       3       7       1163    0.      1.      0.
         .5
CBUSH    8       3       8       1187    0.      1.      0.
         .5
CBUSH    9       3       9       1069    0.      1.      0.
         .5
CBUSH    10      3       11      1099    0.      1.      0.
         .5
CBUSH    11      3       12      1175    0.      1.      0.
         .5
CBUSH    12      3       10      1202    0.      1.      0.
         .5
$ Elements and Element Properties for region : 2D_Al7075_Bandeja_Inf_2mm
PSHELL*  4               1               5.0000002-4     1
*                        1
$ Pset: "2D_Al7075_Bandeja_Inf_2mm" will be imported as: "pshell.4"
CQUAD4   1000    4       1000    1001    1005    1004    0.      0.
CQUAD4   1001    4       1001    1002    1006    1005    0.      0.
CQUAD4   1002    4       1002    1003    1007    1006    0.      0.
CQUAD4   1003    4       1004    1005    1009    1008    0.      0.
CQUAD4   1004    4       1005    1006    1010    1009    0.      0.
CQUAD4   1005    4       1006    1007    1011    1010    0.      0.
CQUAD4   1006    4       1008    1009    1013    1012    0.      0.
CQUAD4   1007    4       1009    1010    1014    1013    0.      0.
CQUAD4   1008    4       1010    1011    1015    1014    0.      0.
CQUAD4   1009    4       1015    1016    1020    1019    0.      0.
CQUAD4   1010    4       1016    1017    1021    1020    0.      0.
CQUAD4   1011    4       1017    1018    1022    1021    0.      0.
CQUAD4   1012    4       1019    1020    1024    1023    0.      0.
CQUAD4   1013    4       1020    1021    1025    1024    0.      0.
CQUAD4   1014    4       1021    1022    1026    1025    0.      0.
CQUAD4   1015    4       1023    1024    1028    1027    0.      0.
CQUAD4   1016    4       1024    1025    1029    1028    0.      0.
CQUAD4   1017    4       1025    1026    1030    1029    0.      0.
CQUAD4   1018    4       1030    1031    1035    1034    0.      0.
CQUAD4   1019    4       1031    1032    1036    1035    0.      0.
$ ... 340 like lines cut
CTRIA3   3000    4       1127    1128    1414    0.      0.
CTRIA3   3001    4       1413    1414    1128    0.      0.
CTRIA3   3002    4       1128    1129    1413    0.      0.
CTRIA3   3003    4       1412    1413    1129    0.      0.
CTRIA3   3004    4       1129    1114    1412    0.      0.
CTRIA3   3005    4       1414    1413    1411    0.      0.
CTRIA3   3006    4       1410    1411    1413    0.      0.
CTRIA3   3007    4       1413    1412    1410    0.      0.
CTRIA3   3008    4       1411    1410    1409    0.      0.
CTRIA3   3009    4       1142    1143    1417    0.      0.
CTRIA3   3010    4       1416    1417    1143    0.      0.
CTRIA3   3011    4       1143    1144    1416    0.      0.
CTRIA3   3012    4       1121    1416    1144    0.      0.
CTRIA3   3013    4       1144    1118    1121    0.      0.
CTRIA3   3014    4       1417    1416    1415    0.      0.
CTRIA3   3015    4       1124    1415    1416    0.      0.
CTRIA3   3016    4       1416    1121    1124    0.      0.
CTRIA3   3017    4       1415    1124    1127    0.      0.
CTRIA3   3018    4       1157    1158    1420    0.      0.
CTRIA3   3019    4       1419    1420    1158    0.      0.
$ ... 160 like lines cut
$ Elements and Element Properties for region : conm2
CONM2    4560    4000    0       11.     0.      0.      0.
*        9.1541669-10    0.              1.3541666-10    0.
*        0.              0.
CONM2*   5000            5000            0               39.325001
*        0.              0.              0.
*        9.1541669-10    0.              1.3541666-10    0.
*        0.              0.
$ Referenced Material Records
$ Material Record : Al7075
$ Description of Material :
MAT1*    1               7.0999998+10    2.6691729+10    .33
*        2800.           2.2-5           20.
$ Multipoint Constraints of the Entire Model
RBE2*    4561            4000            123456          1236
*        1254            1276            1294           2.200000017183-5
RBE2     4562    5000    123456  1003    1018    1033    1048    1072
         1087    1102    1117    1127    1142    1157    1172    1184
         1199    1214    1225    1409    1411    1414    1415    1417
         1418    1420    1421    1423    1424    1426    1429    1430
         1432    1433    1435    1436    1438    1439    1441    1444
         1445    1446    1448    1450    1451    1453    1454    1456
         1457    1459    1462    1464    1465    1467    1468    1470
*        1471            1473            1474            1476
*        1477            1478            1480           2.200000017183-5
$ Nodes of the Entire Model
GRID*    1                              .090000003576279.090000003576279
*        -.02
GRID*    2                              .225000008940697.045000001788139
*        -.02
GRID*    3                              .360000014305115.090000003576279
*        -.02
GRID*    4                              .405000030994415.225000008940697
*        -.02
GRID*    5                              .360000014305115.360000014305115
*        -.02
GRID*    6                              .225000008940697.405000030994415
*        -.02
GRID*    7                              .090000003576279.360000014305115
*        -.02
GRID*    8                              .045000001788139.225000008940697
*        -.02
GRID*    9                              .405000030994415.135000005364418
*        -.02
GRID*    10                             .045000001788139.135000005364418
*        -.02
GRID*    11                             .405000030994415.314999997615814
*        -.02
GRID*    12                             .045000001788139.314999997615814
*        -.02
GRID*    1000                           .045000001788139.045000001788139
*        0.
GRID*    1001                           .060000002384186.030000001192093
*        0.
GRID*    1002                           .075000002980232.014999999664724
*        0.
GRID*    1003                           .090000003576279 0.
*        0.
GRID*    1004                           .060000002384186.060000002384186
*        0.
GRID*    1005                           .075000002980232.045000001788139
*        0.
GRID*    1006                           .090000003576279.030000001192093
*        0.
GRID*    1007                           .105000004172325.015000000596046
*        0.
$ ... 872 like lines cut
GRID     1444            0.      0.      0.
GRID*    1445                           .029999999329448 0.
*        0.
GRID*    1446                           .060000002384186 0.
*        0.
GRID*    1447                           .044999994337559.019285723567009
*        0.
GRID*    1448                           .119999296963215 0.
*        0.
GRID*    1449                           .135000005364418.014999999664724
*        0.
GRID*    1450                           .149999290704727 0.
*        0.
GRID*    1451                           .209999307990074 0.
*        0.
GRID*    1452                           .225000008940697.014999997802079
*        0.
GRID*    1453                           .239999294281006 0.
*        0.
GRID*    1454                           .299999296665192 0.
*        0.
GRID*    1455                           .314999997615814.014999998733401
*        0.
GRID*    1456                           .329999297857285 0.
*        0.
GRID*    1457                            .38999930024147 0.
*        0.
GRID*    1458                           .405000030994415.015000000596046
*        0.
GRID*    1459                           .419999301433563 0.
*        0.
GRID*    1460                           .420000016689301.029999999329448
*        0.
GRID*    1461                           .435000032186508.015000002458692
*        0.
GRID*    1462                           .450000017881393 0.
*        0.
GRID*    1463                           .435000002384186.045000001788139
*        0.
GRID*    1464                           .450000017881393.060000002384186
*        0.
$ ... 36 like lines cut
$ Loads for Load Case : LC1.Modes
SPCADD   2       1
$ Displacement Constraints of Load Set : spc1.1
SPC1     1       123456  1       THRU    12
$ Referenced Coordinate Frames
ENDDATA dba14326
