$ MSC.Nastran input file created on May       01, 2021 at 18:26:49 by
$ Patran 2020  (Student Edition)
$ Direct Text Input for Nastran System Cell Section
$ Direct Text Input for File Management Section
$ Direct Text Input for Executive Control
$ Normal Modes Analysis, Database
SOL 103
CEND
$ Direct Text Input for Global Case Control Data
TITLE = MSC.Nastran job created on 22-Apr-21 at 00:32:16
ECHO = NONE
$ Using Nastran default values for RESVEC
SUBCASE 1
   SUBTITLE=LoadCase
   METHOD = 1
   SPC = 2
   WEIGHTCHECK(PRINT,SET=ALL) = YES
   VECTOR(PLOT,SORT1,REAL)=ALL
$ Direct Text Input for this Subcase
BEGIN BULK
$ Direct Text Input for Bulk Data
MDLPRM   HDF5    0
PARAM   PRTMAXIM YES
EIGRL    1                       10      0                       MASS
$ Elements and Element Properties for region : 2D_Al7075_Bandeja_Inf_2mm
PSHELL   1       1       .002    1               1
$ Pset: "2D_Al7075_Bandeja_Inf_2mm" will be imported as: "pshell.1"
CQUAD4   1000    1       1000    1001    1005    1004
CQUAD4   1001    1       1001    1002    1006    1005
CQUAD4   1002    1       1002    1003    1007    1006
CQUAD4   1003    1       1004    1005    1009    1008
CQUAD4   1004    1       1005    1006    1010    1009
CQUAD4   1005    1       1006    1007    1011    1010
CQUAD4   1006    1       1008    1009    1013    1012
CQUAD4   1007    1       1009    1010    1014    1013
CQUAD4   1008    1       1010    1011    1015    1014
CQUAD4   1009    1       1015    1016    1020    1019
CQUAD4   1010    1       1016    1017    1021    1020
CQUAD4   1011    1       1017    1018    1022    1021
CQUAD4   1012    1       1019    1020    1024    1023
CQUAD4   1013    1       1020    1021    1025    1024
CQUAD4   1014    1       1021    1022    1026    1025
CQUAD4   1015    1       1023    1024    1028    1027
CQUAD4   1016    1       1024    1025    1029    1028
CQUAD4   1017    1       1025    1026    1030    1029
CQUAD4   1018    1       1030    1031    1035    1034
CQUAD4   1019    1       1031    1032    1036    1035
$ ... 340 like lines cut
CTRIA3   3000    1       1127    1128    1414
CTRIA3   3001    1       1413    1414    1128
CTRIA3   3002    1       1128    1129    1413
CTRIA3   3003    1       1412    1413    1129
CTRIA3   3004    1       1129    1114    1412
CTRIA3   3005    1       1414    1413    1411
CTRIA3   3006    1       1410    1411    1413
CTRIA3   3007    1       1413    1412    1410
CTRIA3   3008    1       1411    1410    1409
CTRIA3   3009    1       1142    1143    1417
CTRIA3   3010    1       1416    1417    1143
CTRIA3   3011    1       1143    1144    1416
CTRIA3   3012    1       1121    1416    1144
CTRIA3   3013    1       1144    1118    1121
CTRIA3   3014    1       1417    1416    1415
CTRIA3   3015    1       1124    1415    1416
CTRIA3   3016    1       1416    1121    1124
CTRIA3   3017    1       1415    1124    1127
CTRIA3   3018    1       1157    1158    1420
CTRIA3   3019    1       1419    1420    1158
$ ... 160 like lines cut
$ Elements and Element Properties for region : 1D_Al7075_Rig_in
PBARL    2       1               I1
         .003    .002    .02     .025
$ Pset: "1D_Al7075_Rig_in" will be imported as: "pbarl.2"
CBAR     4000    2       1444    1443    0.      0.      1.
                         0.      0.      -.0135  0.      0.      -.0135
CBAR     4001    2       1443    1442    0.      0.      1.
                         0.      0.      -.0135  0.      0.      -.0135
CBAR     4002    2       1442    1000    0.      0.      1.
                         0.      0.      -.0135  0.      0.      -.0135
CBAR     4003    2       1000    1004    0.      0.      1.
                         0.      0.      -.0135  0.      0.      -.0135
CBAR     4004    2       1004    1008    0.      0.      1.
                         0.      0.      -.0135  0.      0.      -.0135
CBAR     4005    2       1008    1012    0.      0.      1.
                         0.      0.      -.0135  0.      0.      -.0135
CBAR     4006    2       1012    1234    0.      0.      1.
                         0.      0.      -.0135  0.      0.      -.0135
CBAR     4007    2       1234    1235    0.      0.      1.
                         0.      0.      -.0135  0.      0.      -.0135
CBAR     4008    2       1235    1236    0.      0.      1.
                         0.      0.      -.0135  0.      0.      -.0135
CBAR     4009    2       1236    1330    0.      0.      1.
                         0.      0.      -.0135  0.      0.      -.0135
CBAR     4010    2       1330    1331    0.      0.      1.
                         0.      0.      -.0135  0.      0.      -.0135
CBAR     4011    2       1331    1332    0.      0.      1.
                         0.      0.      -.0135  0.      0.      -.0135
CBAR     4012    2       1332    1390    0.      0.      1.
                         0.      0.      -.0135  0.      0.      -.0135
CBAR     4013    2       1390    1391    0.      0.      1.
                         0.      0.      -.0135  0.      0.      -.0135
CBAR     4014    2       1391    1392    0.      0.      1.
                         0.      0.      -.0135  0.      0.      -.0135
CBAR     4015    2       1392    1397    0.      0.      1.
                         0.      0.      -.0135  0.      0.      -.0135
CBAR     4016    2       1397    1398    0.      0.      1.
                         0.      0.      -.0135  0.      0.      -.0135
CBAR     4017    2       1398    1354    0.      0.      1.
                         0.      0.      -.0135  0.      0.      -.0135
CBAR     4018    2       1354    1355    0.      0.      1.
                         0.      0.      -.0135  0.      0.      -.0135
CBAR     4019    2       1355    1356    0.      0.      1.
                         0.      0.      -.0135  0.      0.      -.0135
$ ... 560 like lines cut
$ Elements and Element Properties for region : 1D_Al7075_Rig_out
PBARL    3       1               BAR
         .003    .025
$ Pset: "1D_Al7075_Rig_out" will be imported as: "pbarl.3"
CBAR     4500    3       1462    1465    0.      0.      1.
                         0.      0.      -.0135  0.      0.      -.0135
CBAR     4501    3       1465    1464    0.      0.      1.
                         0.      0.      -.0135  0.      0.      -.0135
CBAR     4502    3       1464    1072    0.      0.      1.
                         0.      0.      -.0135  0.      0.      -.0135
CBAR     4503    3       1072    1468    0.      0.      1.
                         0.      0.      -.0135  0.      0.      -.0135
CBAR     4504    3       1468    1467    0.      0.      1.
                         0.      0.      -.0135  0.      0.      -.0135
CBAR     4505    3       1467    1087    0.      0.      1.
                         0.      0.      -.0135  0.      0.      -.0135
CBAR     4506    3       1087    1471    0.      0.      1.
                         0.      0.      -.0135  0.      0.      -.0135
CBAR     4507    3       1471    1470    0.      0.      1.
                         0.      0.      -.0135  0.      0.      -.0135
CBAR     4508    3       1470    1102    0.      0.      1.
                         0.      0.      -.0135  0.      0.      -.0135
CBAR     4509    3       1102    1474    0.      0.      1.
                         0.      0.      -.0135  0.      0.      -.0135
CBAR     4510    3       1474    1473    0.      0.      1.
                         0.      0.      -.0135  0.      0.      -.0135
CBAR     4511    3       1473    1117    0.      0.      1.
                         0.      0.      -.0135  0.      0.      -.0135
CBAR     4512    3       1117    1477    0.      0.      1.
                         0.      0.      -.0135  0.      0.      -.0135
CBAR     4513    3       1477    1476    0.      0.      1.
                         0.      0.      -.0135  0.      0.      -.0135
CBAR     4514    3       1476    1409    0.      0.      1.
                         0.      0.      -.0135  0.      0.      -.0135
CBAR     4515    3       1409    1411    0.      0.      1.
                         0.      0.      -.0135  0.      0.      -.0135
CBAR     4516    3       1411    1414    0.      0.      1.
                         0.      0.      -.0135  0.      0.      -.0135
CBAR     4517    3       1414    1127    0.      0.      1.
                         0.      0.      -.0135  0.      0.      -.0135
CBAR     4518    3       1127    1415    0.      0.      1.
                         0.      0.      -.0135  0.      0.      -.0135
CBAR     4519    3       1415    1417    0.      0.      1.
                         0.      0.      -.0135  0.      0.      -.0135
$ ... 80 like lines cut
$ Elements and Element Properties for region : 0D_Mass_equip_11kg
CONM2    4560    4000            11.
*        9.1541669-10    0.              1.3541666-10
*
$ Elements and Element Properties for region : 0D_Mass_sat_39.325kg
CONM2*   5000            5000                            39.325001
*
*        9.1541669-10    0.              1.3541666-10
*
$ Elements and Element Properties for region : 1D_CBUSH_IF
PBUSH    4       K       1.+9    1.+9    1.+9    100.    1.+7    1.+7
$ Pset: "1D_CBUSH_IF" will be imported as: "pbush.4"
CBUSH    1       4       1       1012    0.      1.      0.
CBUSH    2       4       2       1030    0.      1.      0.
CBUSH    3       4       3       1057    0.      1.      0.
CBUSH    4       4       4       1084    0.      1.      0.
CBUSH    5       4       5       1103    0.      1.      0.
CBUSH    6       4       6       1130    0.      1.      0.
CBUSH    7       4       7       1163    0.      1.      0.
CBUSH    8       4       8       1187    0.      1.      0.
CBUSH    9       4       9       1069    0.      1.      0.
CBUSH    10      4       11      1099    0.      1.      0.
CBUSH    11      4       12      1175    0.      1.      0.
CBUSH    12      4       10      1202    0.      1.      0.
$ Referenced Material Records
$ Material Record : Al7075
$ Description of Material : Date: 21-Apr-21           Time: 00:09:58
MAT1*    1               7.0999998+10                    .33
*        2800.           2.2-5           20.
$ Multipoint Constraints of the Entire Model
RBE2*    4561            4000            123456          1236
*        1254            1276            1294           2.200000017183-5
RBE2     4562    5000    123456  1003    1018    1033    1048    1072
         1087    1102    1117    1127    1142    1157    1172    1184
         1199    1214    1225    1409    1411    1414    1415    1417
         1418    1420    1421    1423    1424    1426    1429    1430
         1432    1433    1435    1436    1438    1439    1441    1444
         1445    1446    1448    1450    1451    1453    1454    1456
         1457    1459    1462    1464    1465    1467    1468    1470
*        1471            1473            1474            1476
*        1477            1478            1480           2.200000017183-5
$ Nodes of the Entire Model
GRID*    1                              .090000003576279.090000003576279
*        -.02
GRID*    2                              .225000008940697.045000001788139
*        -.02
GRID*    3                              .360000014305115.090000003576279
*        -.02
GRID*    4                              .405000030994415.225000008940697
*        -.02
GRID*    5                              .360000014305115.360000014305115
*        -.02
GRID*    6                              .225000008940697.405000030994415
*        -.02
GRID*    7                              .090000003576279.360000014305115
*        -.02
GRID*    8                              .045000001788139.225000008940697
*        -.02
GRID*    9                              .405000030994415.135000005364418
*        -.02
GRID*    10                             .045000001788139.135000005364418
*        -.02
GRID*    11                             .405000030994415.314999997615814
*        -.02
GRID*    12                             .045000001788139.314999997615814
*        -.02
GRID*    1000                           .045000001788139.045000001788139
*        0.
GRID*    1001                           .060000002384186.030000001192093
*        0.
GRID*    1002                           .075000002980232.014999999664724
*        0.
GRID*    1003                           .090000003576279 0.
*        0.
GRID*    1004                           .060000002384186.060000002384186
*        0.
GRID*    1005                           .075000002980232.045000001788139
*        0.
GRID*    1006                           .090000003576279.030000001192093
*        0.
GRID*    1007                           .105000004172325.015000000596046
*        0.
$ ... 872 like lines cut
GRID     1444            0.      0.      0.
GRID*    1445                           .029999999329448 0.
*        0.
GRID*    1446                           .060000002384186 0.
*        0.
GRID*    1447                           .044999994337559.019285723567009
*        0.
GRID*    1448                           .119999296963215 0.
*        0.
GRID*    1449                           .135000005364418.014999999664724
*        0.
GRID*    1450                           .149999290704727 0.
*        0.
GRID*    1451                           .209999307990074 0.
*        0.
GRID*    1452                           .225000008940697.014999997802079
*        0.
GRID*    1453                           .239999294281006 0.
*        0.
GRID*    1454                           .299999296665192 0.
*        0.
GRID*    1455                           .314999997615814.014999998733401
*        0.
GRID*    1456                           .329999297857285 0.
*        0.
GRID*    1457                            .38999930024147 0.
*        0.
GRID*    1458                           .405000030994415.015000000596046
*        0.
GRID*    1459                           .419999301433563 0.
*        0.
GRID*    1460                           .420000016689301.029999999329448
*        0.
GRID*    1461                           .435000032186508.015000002458692
*        0.
GRID*    1462                           .450000017881393 0.
*        0.
GRID*    1463                           .435000002384186.045000001788139
*        0.
GRID*    1464                           .450000017881393.060000002384186
*        0.
$ ... 36 like lines cut
$ Loads for Load Case : LoadCase
SPCADD   2       1
$ Displacement Constraints of Load Set : SPC_123456
SPC1     1       123456  1       THRU    12
$ Referenced Coordinate Frames
ENDDATA 792771d8
